LTspice 24.0.9 for Windows
Circuit: * C:\Users\Ren\Desktop\IDE\Lab 7\Draft1.asc
Start Time: Mon Nov 10 11:25:01 2025
solver = Normal
Maximum thread count: 8
tnom = 27
temp = 27
method = modified trap
Direct Newton iteration for .op point succeeded.
Total elapsed time: 0.074 seconds.

