LTspice 24.0.9 for Windows
Circuit: * C:\Users\Ren\Desktop\IDE\Lab 7\Q4.asc
Start Time: Mon Oct 27 23:45:26 2025
solver = Normal
Maximum thread count: 8
tnom = 27
temp = 27
method = modified trap
.OP point found by inspection.
Total elapsed time: 0.071 seconds.

