LTspice 24.0.9 for Windows
Circuit: * C:\Users\Ren\Desktop\IDE\Lab 7\Q5.asc
Start Time: Fri Oct 31 18:47:53 2025
solver = Normal
Maximum thread count: 8
tnom = 27
temp = 27
method = modified trap
.OP point found by inspection.
Total elapsed time: 0.046 seconds.

