LTspice 24.0.9 for Windows
Circuit: * C:\Users\Ren\Desktop\IDE\Lab 8\Non-Cascaded_Filter.asc
Start Time: Mon Nov 10 13:28:35 2025
solver = Normal
Maximum thread count: 8
tnom = 27
temp = 27
method = modified trap
Direct Newton iteration for .op point succeeded.
Total elapsed time: 0.157 seconds.

